Version 4
SHEET 1 3960 1728
WIRE 544 464 208 464
WIRE 896 464 624 464
WIRE 848 576 704 576
WIRE 704 592 704 576
WIRE 656 624 592 624
WIRE 592 672 592 624
WIRE 704 672 592 672
WIRE 80 704 16 704
WIRE 208 704 208 464
WIRE 208 704 80 704
WIRE 368 704 208 704
WIRE 80 720 80 704
WIRE 704 736 704 672
WIRE 736 736 704 736
WIRE 848 736 848 576
WIRE 848 736 816 736
WIRE 16 752 16 704
WIRE 368 752 368 704
WIRE 144 768 128 768
WIRE 80 816 80 800
WIRE 144 816 144 768
WIRE 144 816 80 816
WIRE 784 816 784 800
WIRE 80 848 80 816
WIRE 784 912 784 896
WIRE 368 928 368 816
WIRE 544 928 368 928
WIRE 704 928 704 736
WIRE 704 928 624 928
WIRE 752 928 704 928
WIRE 848 944 848 736
WIRE 848 944 816 944
WIRE 896 944 896 464
WIRE 896 944 848 944
WIRE 80 960 80 928
WIRE 752 960 688 960
WIRE 688 976 688 960
WIRE 16 1008 16 816
WIRE 144 1008 16 1008
WIRE 368 1008 368 928
WIRE 368 1008 224 1008
WIRE 784 1008 784 976
WIRE 160 1088 160 1072
WIRE 784 1104 784 1088
WIRE -528 1136 -544 1136
WIRE -432 1136 -448 1136
WIRE -416 1136 -432 1136
WIRE -272 1136 -272 1120
WIRE -272 1136 -336 1136
WIRE -544 1152 -544 1136
WIRE -128 1168 -128 1120
WIRE -128 1168 -304 1168
WIRE 160 1184 160 1168
WIRE -304 1200 -304 1168
WIRE 16 1200 16 1008
WIRE 128 1200 16 1200
WIRE -432 1216 -432 1136
WIRE -336 1216 -432 1216
WIRE 368 1216 368 1008
WIRE 368 1216 192 1216
WIRE -176 1232 -272 1232
WIRE -64 1232 -112 1232
WIRE 64 1232 16 1232
WIRE 128 1232 64 1232
WIRE -640 1248 -672 1248
WIRE -544 1248 -576 1248
WIRE -384 1248 -544 1248
WIRE -336 1248 -384 1248
WIRE -544 1264 -544 1248
WIRE 64 1264 64 1232
WIRE -384 1280 -384 1248
WIRE 160 1280 160 1248
WIRE -304 1296 -304 1264
WIRE -672 1344 -672 1248
WIRE -544 1360 -544 1344
WIRE -384 1360 -384 1344
WIRE 64 1376 64 1344
WIRE 160 1376 160 1360
FLAG -544 1152 0
FLAG -304 1376 0
FLAG -544 1360 0
FLAG -384 1360 0
FLAG -672 1424 0
FLAG -272 1040 0
FLAG -128 1040 0
FLAG 64 1376 0
FLAG 160 1376 0
FLAG 160 1072 0
FLAG 80 960 0
FLAG 784 1104 0
FLAG 784 800 0
FLAG 688 976 0
SYMBOL OpAmps\\opamp2 -304 1168 R0
SYMATTR InstName U1
SYMATTR Value TL081
SYMBOL voltage -304 1392 R180
WINDOW 0 24 96 Left 2
WINDOW 3 24 16 Left 2
WINDOW 123 0 0 Left 0
WINDOW 39 0 0 Left 0
SYMATTR InstName V4
SYMATTR Value 12
SYMBOL res -320 1120 R90
WINDOW 0 0 56 VBottom 2
WINDOW 3 32 56 VTop 2
SYMATTR InstName R3
SYMATTR Value 100k
SYMBOL res -432 1120 R90
WINDOW 0 0 56 VBottom 2
WINDOW 3 32 56 VTop 2
SYMATTR InstName R4
SYMATTR Value 33k
SYMBOL diode -368 1344 R180
WINDOW 0 24 64 Left 2
WINDOW 3 24 0 Left 2
SYMATTR InstName D1
SYMATTR Value 1N4148
SYMBOL res -560 1248 R0
SYMATTR InstName R6
SYMATTR Value 39k
SYMBOL cap -576 1232 R90
WINDOW 0 0 32 VBottom 2
WINDOW 3 32 32 VTop 2
SYMATTR InstName C2
SYMATTR Value 10n
SYMBOL voltage -672 1328 R0
WINDOW 123 0 0 Left 0
WINDOW 39 0 0 Left 0
SYMATTR InstName V1
SYMATTR Value PULSE(0 5 0 1n 1n 0.5 1)
SYMBOL voltage -272 1136 R180
WINDOW 0 24 96 Left 2
WINDOW 3 24 16 Left 2
WINDOW 123 0 0 Left 0
WINDOW 39 0 0 Left 0
SYMATTR InstName V2
SYMATTR Value 12
SYMBOL voltage -128 1136 R180
WINDOW 0 24 96 Left 2
WINDOW 3 24 16 Left 2
WINDOW 123 0 0 Left 0
WINDOW 39 0 0 Left 0
SYMATTR InstName V5
SYMATTR Value 12
SYMBOL res 32 1216 R90
WINDOW 0 0 56 VBottom 2
WINDOW 3 32 56 VTop 2
SYMATTR InstName R1
SYMATTR Value 100k
SYMBOL res 80 1360 R180
WINDOW 0 36 76 Left 2
WINDOW 3 36 40 Left 2
SYMATTR InstName R2
SYMATTR Value 14k
SYMBOL OpAmps\\opamp2 160 1152 R0
SYMATTR InstName U2
SYMATTR Value TL081
SYMBOL voltage 160 1376 R180
WINDOW 0 24 96 Left 2
WINDOW 3 24 16 Left 2
WINDOW 123 0 0 Left 0
WINDOW 39 0 0 Left 0
SYMATTR InstName V3
SYMATTR Value 12
SYMBOL voltage 160 1184 R180
WINDOW 0 24 96 Left 2
WINDOW 3 24 16 Left 2
WINDOW 123 0 0 Left 0
WINDOW 39 0 0 Left 0
SYMATTR InstName V6
SYMATTR Value 12
SYMBOL res 240 992 R90
WINDOW 0 0 56 VBottom 2
WINDOW 3 32 56 VTop 2
SYMATTR InstName R5
SYMATTR Value 1Meg
SYMBOL pot 64 704 R0
SYMATTR InstName pitch
SYMATTR Value Rtot=100K wiper=0.9
SYMBOL cap 0 752 R0
SYMATTR InstName C1
SYMATTR Value 15n
SYMBOL cap 352 752 R0
SYMATTR InstName C3
SYMATTR Value 15n
SYMBOL diode -176 1248 R270
WINDOW 0 32 32 VTop 2
WINDOW 3 0 32 VBottom 2
SYMATTR InstName D2
SYMATTR Value 1N4148
SYMBOL res 64 832 R0
SYMATTR InstName R7
SYMATTR Value 10k
SYMBOL OpAmps\\opamp2 784 880 R0
SYMATTR InstName U3
SYMATTR Value TL081
SYMBOL voltage 784 1104 R180
WINDOW 0 24 96 Left 2
WINDOW 3 24 16 Left 2
WINDOW 123 0 0 Left 0
WINDOW 39 0 0 Left 0
SYMATTR InstName V7
SYMATTR Value 12
SYMBOL voltage 784 912 R180
WINDOW 0 24 96 Left 2
WINDOW 3 24 16 Left 2
WINDOW 123 0 0 Left 0
WINDOW 39 0 0 Left 0
SYMATTR InstName V8
SYMATTR Value 12
SYMBOL res 640 912 R90
WINDOW 0 0 56 VBottom 2
WINDOW 3 32 56 VTop 2
SYMATTR InstName R8
SYMATTR Value 47k
SYMBOL res 640 448 R90
WINDOW 0 0 56 VBottom 2
WINDOW 3 32 56 VTop 2
SYMATTR InstName R10
SYMATTR Value 470k
SYMBOL res 832 720 R90
WINDOW 0 0 56 VBottom 2
WINDOW 3 32 56 VTop 2
SYMATTR InstName R9
SYMATTR Value 47k
SYMBOL pot 720 688 R180
SYMATTR InstName decay
SYMATTR Value Rtot=1Meg wiper=0.3
TEXT 416 1256 Left 2 !.tran 2.5
TEXT 416 1320 Left 2 !.include ../components/UA741.301
TEXT 416 1288 Left 2 !.include ../components/TL081.301
TEXT 416 1352 Left 2 !.include pot.sub
