Version 4
SHEET 1 3960 1728
WIRE 544 464 208 464
WIRE 896 464 624 464
WIRE 848 576 704 576
WIRE 704 592 704 576
WIRE 656 624 592 624
WIRE 592 672 592 624
WIRE 704 672 592 672
WIRE -432 688 -432 672
WIRE -64 704 -176 704
WIRE 80 704 -64 704
WIRE 208 704 208 464
WIRE 208 704 80 704
WIRE 368 704 208 704
WIRE 80 720 80 704
WIRE -496 736 -544 736
WIRE -176 736 -176 704
WIRE 704 736 704 672
WIRE 736 736 704 736
WIRE 848 736 848 576
WIRE 848 736 816 736
WIRE -64 752 -64 704
WIRE 368 752 368 704
WIRE 144 768 128 768
WIRE -784 784 -816 784
WIRE -640 784 -720 784
WIRE -544 784 -544 736
WIRE -544 784 -640 784
WIRE -336 784 -432 784
WIRE -240 784 -256 784
WIRE -640 816 -640 784
WIRE -544 816 -544 784
WIRE 80 816 80 800
WIRE 144 816 144 768
WIRE 144 816 80 816
WIRE 784 816 784 800
WIRE 80 848 80 816
WIRE -640 896 -640 880
WIRE -496 896 -496 864
WIRE -496 896 -544 896
WIRE -176 912 -176 832
WIRE 784 912 784 896
WIRE -544 928 -544 896
WIRE 368 928 368 816
WIRE 544 928 368 928
WIRE 704 928 704 736
WIRE 704 928 624 928
WIRE 752 928 704 928
WIRE -224 944 -320 944
WIRE 848 944 848 736
WIRE 848 944 816 944
WIRE 896 944 896 464
WIRE 896 944 848 944
WIRE 80 960 80 928
WIRE 752 960 688 960
WIRE 688 976 688 960
WIRE -320 1008 -320 944
WIRE -176 1008 -176 992
WIRE -176 1008 -320 1008
WIRE -64 1008 -64 816
WIRE 144 1008 -64 1008
WIRE 368 1008 368 928
WIRE 368 1008 224 1008
WIRE 784 1008 784 976
WIRE -544 1024 -544 1008
WIRE -176 1040 -176 1008
WIRE 160 1088 160 1072
WIRE 784 1104 784 1088
WIRE -1280 1136 -1296 1136
WIRE -1184 1136 -1200 1136
WIRE -1168 1136 -1184 1136
WIRE -1024 1136 -1024 1120
WIRE -1024 1136 -1088 1136
WIRE -176 1136 -176 1120
WIRE -1296 1152 -1296 1136
WIRE -880 1168 -880 1120
WIRE -880 1168 -1056 1168
WIRE 160 1184 160 1168
WIRE -1056 1200 -1056 1168
WIRE -64 1200 -64 1008
WIRE 128 1200 -64 1200
WIRE -1184 1216 -1184 1136
WIRE -1088 1216 -1184 1216
WIRE 368 1216 368 1008
WIRE 368 1216 192 1216
WIRE -816 1232 -816 784
WIRE -816 1232 -1024 1232
WIRE -784 1232 -816 1232
WIRE -192 1232 -720 1232
WIRE -64 1232 -112 1232
WIRE 128 1232 -64 1232
WIRE -1392 1248 -1424 1248
WIRE -1296 1248 -1328 1248
WIRE -1136 1248 -1296 1248
WIRE -1088 1248 -1136 1248
WIRE -1296 1264 -1296 1248
WIRE -64 1264 -64 1232
WIRE -1136 1280 -1136 1248
WIRE 160 1280 160 1248
WIRE -1056 1296 -1056 1264
WIRE -1424 1344 -1424 1248
WIRE -1296 1360 -1296 1344
WIRE -1136 1360 -1136 1344
WIRE -64 1376 -64 1344
WIRE 160 1376 160 1360
FLAG -1296 1152 0
FLAG -1056 1376 0
FLAG -1296 1360 0
FLAG -1136 1360 0
FLAG -1424 1424 0
FLAG -1024 1040 0
FLAG -880 1040 0
FLAG -64 1376 0
FLAG 160 1376 0
FLAG 160 1072 0
FLAG 80 960 0
FLAG 784 1104 0
FLAG 784 800 0
FLAG 688 976 0
FLAG -640 896 0
FLAG -544 1024 0
FLAG -432 592 0
FLAG -176 1136 0
SYMBOL OpAmps\\opamp2 -1056 1168 R0
SYMATTR InstName U1
SYMATTR Value TL081
SYMBOL voltage -1056 1392 R180
WINDOW 0 24 96 Left 2
WINDOW 3 24 16 Left 2
WINDOW 123 0 0 Left 0
WINDOW 39 0 0 Left 0
SYMATTR InstName V4
SYMATTR Value 12
SYMBOL res -1072 1120 R90
WINDOW 0 0 56 VBottom 2
WINDOW 3 32 56 VTop 2
SYMATTR InstName R3
SYMATTR Value 100k
SYMBOL res -1184 1120 R90
WINDOW 0 0 56 VBottom 2
WINDOW 3 32 56 VTop 2
SYMATTR InstName R4
SYMATTR Value 33k
SYMBOL diode -1120 1344 R180
WINDOW 0 24 64 Left 2
WINDOW 3 24 0 Left 2
SYMATTR InstName D1
SYMATTR Value 1N4148
SYMBOL res -1312 1248 R0
SYMATTR InstName R6
SYMATTR Value 39k
SYMBOL cap -1328 1232 R90
WINDOW 0 0 32 VBottom 2
WINDOW 3 32 32 VTop 2
SYMATTR InstName C2
SYMATTR Value 10n
SYMBOL voltage -1424 1328 R0
WINDOW 123 0 0 Left 0
WINDOW 39 0 0 Left 0
SYMATTR InstName V1
SYMATTR Value PULSE(0 5 0 1n 1n 0.5 1)
SYMBOL voltage -1024 1136 R180
WINDOW 0 24 96 Left 2
WINDOW 3 24 16 Left 2
WINDOW 123 0 0 Left 0
WINDOW 39 0 0 Left 0
SYMATTR InstName V2
SYMATTR Value 12
SYMBOL voltage -880 1136 R180
WINDOW 0 24 96 Left 2
WINDOW 3 24 16 Left 2
WINDOW 123 0 0 Left 0
WINDOW 39 0 0 Left 0
SYMATTR InstName V5
SYMATTR Value 12
SYMBOL res -96 1216 R90
WINDOW 0 0 56 VBottom 2
WINDOW 3 32 56 VTop 2
SYMATTR InstName R1
SYMATTR Value 100k
SYMBOL res -48 1360 R180
WINDOW 0 36 76 Left 2
WINDOW 3 36 40 Left 2
SYMATTR InstName R2
SYMATTR Value 14k
SYMBOL OpAmps\\opamp2 160 1152 R0
SYMATTR InstName U2
SYMATTR Value TL081
SYMBOL voltage 160 1376 R180
WINDOW 0 24 96 Left 2
WINDOW 3 24 16 Left 2
WINDOW 123 0 0 Left 0
WINDOW 39 0 0 Left 0
SYMATTR InstName V3
SYMATTR Value 12
SYMBOL voltage 160 1184 R180
WINDOW 0 24 96 Left 2
WINDOW 3 24 16 Left 2
WINDOW 123 0 0 Left 0
WINDOW 39 0 0 Left 0
SYMATTR InstName V6
SYMATTR Value 12
SYMBOL res 240 992 R90
WINDOW 0 0 56 VBottom 2
WINDOW 3 32 56 VTop 2
SYMATTR InstName R5
SYMATTR Value 1Meg
SYMBOL pot 64 704 R0
SYMATTR InstName pitch
SYMATTR Value Rtot=100K wiper=0.9
SYMBOL cap -80 752 R0
SYMATTR InstName C1
SYMATTR Value 15n
SYMBOL cap 352 752 R0
SYMATTR InstName C3
SYMATTR Value 15n
SYMBOL res 64 832 R0
SYMATTR InstName R7
SYMATTR Value 10k
SYMBOL OpAmps\\opamp2 784 880 R0
SYMATTR InstName U3
SYMATTR Value TL081
SYMBOL voltage 784 1104 R180
WINDOW 0 24 96 Left 2
WINDOW 3 24 16 Left 2
WINDOW 123 0 0 Left 0
WINDOW 39 0 0 Left 0
SYMATTR InstName V7
SYMATTR Value 12
SYMBOL voltage 784 912 R180
WINDOW 0 24 96 Left 2
WINDOW 3 24 16 Left 2
WINDOW 123 0 0 Left 0
WINDOW 39 0 0 Left 0
SYMATTR InstName V8
SYMATTR Value 12
SYMBOL res 640 912 R90
WINDOW 0 0 56 VBottom 2
WINDOW 3 32 56 VTop 2
SYMATTR InstName R8
SYMATTR Value 47k
SYMBOL res 640 448 R90
WINDOW 0 0 56 VBottom 2
WINDOW 3 32 56 VTop 2
SYMATTR InstName R10
SYMATTR Value 470k
SYMBOL res 832 720 R90
WINDOW 0 0 56 VBottom 2
WINDOW 3 32 56 VTop 2
SYMATTR InstName R9
SYMATTR Value 47k
SYMBOL pot 720 688 R180
SYMATTR InstName decay
SYMATTR Value Rtot=1Meg wiper=0.35
SYMBOL diode -784 800 R270
WINDOW 0 32 32 VTop 2
WINDOW 3 0 32 VBottom 2
SYMATTR InstName D3
SYMATTR Value 1N4148
SYMBOL npn -240 736 R0
SYMATTR InstName Q1
SYMATTR Value BC547C
SYMBOL diode -784 1248 R270
WINDOW 0 32 32 VTop 2
WINDOW 3 0 32 VBottom 2
SYMATTR InstName D2
SYMATTR Value 1N4148
SYMBOL res -240 768 R90
WINDOW 0 0 56 VBottom 2
WINDOW 3 32 56 VTop 2
SYMATTR InstName R11
SYMATTR Value 100k
SYMBOL pot -560 800 R0
SYMATTR InstName envelope
SYMATTR Value Rtot=100K wiper=0.5
SYMBOL cap -656 816 R0
SYMATTR InstName C4
SYMATTR Value 220n
SYMBOL res -560 912 R0
SYMATTR InstName R12
SYMATTR Value 10k
SYMBOL npn -496 688 R0
SYMATTR InstName Q2
SYMATTR Value BC547C
SYMBOL voltage -432 688 R180
WINDOW 0 24 96 Left 2
WINDOW 3 24 16 Left 2
WINDOW 123 0 0 Left 0
WINDOW 39 0 0 Left 0
SYMATTR InstName V9
SYMATTR Value 12
SYMBOL res -192 1024 R0
SYMATTR InstName R13
SYMATTR Value 2k
SYMBOL pot -160 1008 R180
SYMATTR InstName env_pitch
SYMATTR Value Rtot=10K wiper=0.5
TEXT 416 1256 Left 2 !.tran 2
TEXT 416 1320 Left 2 !.include ../components/UA741.301
TEXT 416 1288 Left 2 !.include ../components/TL081.301
TEXT 416 1352 Left 2 !.include pot.sub
